sim-outorder: SimpleScalar/Alpha Tool Set version 3.0 of November, 2000.
Copyright (c) 1994-2000 by Todd M. Austin.  All Rights Reserved.
This version of SimpleScalar is licensed for academic non-commercial use only.

sim: command line: /home/swain/CMP/cmp_org_huq_all_trace/sim-outorder -redir:sim ./log/test_blackschole_xy_org_106.txt -redir:dump ./log/test_blackschole_xy_org_106.out -flow_trace ./trace/flow_blackschole_xy_org.log -router_trace ./trace/router_blackschole_xy_org.log -cpu:trace ./trace/cpu_blackschole_xy_org.log -L2:trace ./trace/L2_blackschole_xy_org.log -config ./config_mesh_ooo_xy_org -max:barrier 0 -max:inst 100000 blackscholes64.BNC 
Run on swain-Inspiron-3668
initializing context 0
thread 0 BLACKSCHOLES
Dcache2_gc power 0.414846
xyz Bpred	1.167153
xyz Rename	0.183448
xyz ROB wakeup	0.038217
xyz ROB ram	0.091037
xyz IQ ram	0.240710
xyz FQ ram	0.240710
xyz iwakeup	0.033655
xyz fwakeup	0.033655
xyz iselect	0.003097
xyz fselect	0.003097
xyz lsq 	0.420154
xyz iregf	1.068173
xyz fregf	1.068173
xyz ialu1	1.264477
xyz ialu2	0.264857
xyz falu1	4.466680
xyz falu2	1.116670
xyz iresultb	0.466051
xyz fresultb	0.559262
xyz itlb	0.016954
xyz dtlb	0.030573
xyz icache	0.585987
xyz dcache	1.085357
xyz clock	3.312529
xyz dcache2	0.834279
xyz clock-fr	0.662506
xyz clock-int	1.656264
xyz clock-fp	0.993759
xyz duplication	0.010978
xyz compare	0.005125
xyz total	18.611057

Processor Parameters:
Issue Width: 4
Window Size: 64
Number of Virtual Registers: 32
Number of Physical Registers: 64
Datapath Width: 64
Total Power Consumption: 20.6023
Branch Predictor Power Consumption: 1.16715  (6.27%)
 branch target buffer power (W): 0.708318
 local predict power (W): 0.173841
 global predict power (W): 0.0709693
 chooser power (W): 0.120756
 RAS power (W): 0.0932687
Rename Logic Power Consumption: 0.183448  (0.986%)
ROB Wakeup Power Consumption: 0.0382174  (0.205%)
ROB RAM Power Consumption: 0.091037  (0.489%)
Clock1 Power Consumption: 0.662506  (3.56%)
Clock2 Power Consumption: 1.65626  (8.9%)
Clock3 Power Consumption: 0.993759  (5.34%)
 Instruction Decode Power (W): 0.00339904
 RAT decode_power (W): 0.0529434
 RAT wordline_power (W): 0.0069866
 RAT bitline_power (W): 0.0936294
 RAT gc_power (W): 0.0241287
 DCL Comparators (W): 0.00236066
Int wakeup Power Consumption: 0.0332278 (0.179%)
Fp wakeup Power Consumption: 0.0332278 (0.179%)
Int selection Power Consumption: 0.0030972 (0.0166%)
Fp selection Power Consumption: 0.0030972 (0.0166%)
Int issueq ram Power Consumption: 0.24071 (1.29%)
Fp issueq ram Power Consumption: 0.24071 (1.29%)
Load/Store Queue Power Consumption: 0.420154  (2.26%)
 tagdrive (W): 0.164489
 tagmatch (W): 0.0664541
 wakeup_gc (W): 0.00042682
 decode_power (W): 0.00840824
 wordline_power (W): 0.00220216
 bitline_power (W): 0.123022
 rs_gc (W): 0.0551512
Int Register File Power Consumption: 1.06817  (5.74%)
 decode_power (W): 0.0529434
 wordline_power (W): 0.012594
 bitline_power (W): 0.78203
 regfile_gc (W): 0.220605
Fp Register File Power Consumption: 1.06817  (5.74%)
 decode_power (W): 0.0529434
 wordline_power (W): 0.012594
 bitline_power (W): 0.78203
 regfile_gc (W): 0.220605
iResult Bus Power Consumption: 0.466051  (2.51%)
fResult Bus Power Consumption: 0.559262  (3.01%)
Total Clock Power: 3.31253  (17.8%)
Int ALU1 Power: 1.26448  (6.8%)
Int ALU2 Power: 0.264857  (1.42%)
FP ALU1 Power: 4.46668  (24%)
FP ALU2 Power: 1.11667  (6%)
Instruction Cache Power Consumption: 0.585987  (3.15%)
 decode_power (W): 0.0136984
 wordline_power (W): 0.0107241
 bitline_power (W): 0.163205
 senseamp_power (W): 0.1536
 tagarray_power (W): 0.0306828
 icache_gc (W): 0.122998
Itlb_power (W): 0.0169544 (0.0911%)
Data Cache Power Consumption: 1.08536  (5.83%)
 decode_power (W): 0.0273968
 wordline_power (W): 0.0214482
 bitline_power (W): 0.32641
 senseamp_power (W): 0.3072
 tagarray_power (W): 0.110481
 dcache_gc (W): 0.123726
Dtlb_power (W): 0.030573 (0.164%)
Level 2 Cache Power Consumption: 0.834279 (4.48%)
 decode_power (W): 0.000717684
 wordline_power (W): 0.00446903
 bitline_power (W): 0.0713944
 senseamp_power (W): 0.0768
 tagarray_power (W): 0.0534131
 dcache2_gc (W): 0.497815
Instruction Duplication Power Consumption: 0.00927211 (0.0498%)
 d_flip_flop_power (W): 0.00508244
 two_to_1_mux_power (W): 0.00418967
Instruction Comparator Power Consumption: 0.00512487 (0.0275%)
sim: command line: /home/swain/CMP/cmp_org_huq_all_trace/sim-outorder -redir:sim ./log/test_blackschole_xy_org_106.txt -redir:dump ./log/test_blackschole_xy_org_106.out -flow_trace ./trace/flow_blackschole_xy_org.log -router_trace ./trace/router_blackschole_xy_org.log -cpu:trace ./trace/cpu_blackschole_xy_org.log -L2:trace ./trace/L2_blackschole_xy_org.log -config ./config_mesh_ooo_xy_org -max:barrier 0 -max:inst 100000 blackscholes64.BNC 
Run on swain-Inspiron-3668

sim: main.c compiled on Feb 21 2018 at 15:04:12 with gcc version 4.8.5
sim: simulation started @ Wed Feb 21 16:03:59 2018, options follow:

sim-outorder: This simulator implements a very detailed out-of-order issue
superscalar processor with a two-level memory system and speculative
execution support.  This simulator is a performance simulator, tracking the
latency of all pipeline operations.

-config                     # load configuration from a file
-dumpconfig                 # dump configuration to a file
-h                    false # print help message    
-v                    false # verbose operation     
-d                    false # enable debug message  
-i                    false # start in Dlite debugger
-seed                       1 # random number generator seed (0 for timer seed)
-q                    false # initialize and terminate immediately
-redir:sim     ./log/test_blackschole_xy_org_106.txt # redirect simulator output to file (non-interactive only)
-redir:dump    ./log/test_blackschole_xy_org_106.out # redirect simulated program output to file
-nice                       0 # simulator scheduling priority
-max:inst              100000 # maximum number of inst's to execute/thread
-max:barrier                0 # maximum number of barriers to execute
-network:meshsize            8 # mesh size of the network
-sharer:read_en             1 # sharer read enable    
-inform_back:total_en            1 # inform back en        
-tlb:class_coarse            0 # tlb class coarse      
-multi_blk:set_shift            0 # multi blk set shift   
-multi_blk:adap_en            0 # multi blk adaptive    
-multi_blk_adap:pain_en            0 # multi blk adap pain en
-multi_blk_adap:inform_en            0 # multi blk adap inform en
-multi_blk_adap:repl_ad_en            0 # multi blk adap repl ad en
-multi_blk_adap:recall_ad_en            0 # multi blk adap recall ad en
-pvc:vector_num             8 # pvc vector num        
-pvc:sharer_threshold            8 # pvc sharer threshold  
-pvc:nv_broadcast            0 # pvc non-vector broadcast
-prefetch:L2_En             0 # enable L2 prefetch    
-prefetch:L1_En             0 # enable L1 prefetch    
-STREAM:min                 0 # STREAM & min          
-STREAM:L2_distance           16 # STREAM_L2_distance    
-STREAM:min_distance            0 # STREAM_min_distance   
-ptrace              <null> # generate pipetrace, i.e., <fname|stdout|stderr> <range>
-fetch:ifqsize              4 # instruction fetch queue size (in insts)
-fetch:mplat                5 # extra branch mis-prediction latency
-fetch:speed                1 # speed of front-end of machine relative to execution core
-bpred                   comb # branch predictor type {nottaken|taken|perfect|bimod|2lev|comb|2bcgskew}
-bpred:btb_use_masterid         true # use masterid in place of threadid when interacting with BTB, giving you per-process instead of per-thread entries
-bpred:bimod     4096 # bimodal predictor config (<table size>)
-bpred:2lev      1 8192 13 1 # 2-level predictor config (<l1size> <l2size> <hist_size> <xor>)
-bpred:comb      8192 # combining predictor config (<meta_table_size>)
-disp1                      0 # 2bcgskew table displacement for lev 1
-disp2                      0 # 2bcgskew table displacement for lev 2
-bpred:2bcgskew  32768 32768 0 22 4 4 # 2Bc-gskew predictor config (<bim_size> <size> <bim_hist_size> <g0_hist_size> <g1_hist_size> <meta_hist_size>)
-bpred:ras                 32 # return address stack size (0 for no return stack)
-bpred:btb       4096 4 # BTB config (<num_sets> <associativity>)
-bpred:spec_update       <null> # speculative predictors update in {ID|WB} (default non-spec)
-decode:width               4 # instruction decode B/W (insts/cycle)
-thrdf:limit                8 # Number of thread fetch (thrd/cycle<=8)
-instthrdf:width            4 # instruction fetch B/w per thread (insts/cycle<=decode_width)
-ipregf:size               64 # integer physical register file size (per cluster)
-fpregf:size               64 # floating point physical register file size (per cluster)
-iqueue:size               16 # integer queue size (insts) (per cluster)
-fqueue:size               16 # floating point queue size (insts) (per cluster)
-issue:width                4 # instruction issue B/W (insts/cluster/cycle)
-issue:inorder          false # run pipeline with in-order issue
-issue:wrongpath         true # issue instructions down wrong execution paths
-commit:width               4 # instruction commit B/W (insts/thread/cycle)
-ruu:size                  64 # register update unit (RUU) size
-lsq:size                  32 # load/store queue (LSQ) size (per cluster)
-lq:size                   16 # load queue (LQ) size  
-sq:size                   16 # store queue (SQ) size 
-checker:vdd           0.6000 # checker vdd           
-checker:freq          0.5000 # checker running at what fraction of full freq
-cache:dl1       dl1:128:64:2:l # l1 data cache config, i.e., {<config>|none} (each cluster)
-cache:dl1lat               2 # l1 data cache hit latency (in cycles)
-cache:ml2       ml2:4096:64:8:l # l2 meta cache config, i.e., {<config>|none}
-cache:dl2       dl2:4096:64:8:l # l2 data cache config, i.e., {<config>|none}
-cache:ml2lat              15 # l2 meta cache hit latency (in cycles)
-cache:dl2lat              15 # l2 data cache hit latency (in cycles)
-cache:il1       il1:256:64:2:l # l1 inst cache config, i.e., {<config>|dl1|dl2|none}
-cache:il1lat               1 # l1 instruction cache hit latency (in cycles)
-cache:il2                dl2 # l2 instruction cache config, i.e., {<config>|dl2|none}
-cache:il2lat              15 # l2 instruction cache hit latency (in cycles)
-cache:flush            false # flush caches on system calls
-cache:icompress        false # convert 64-bit inst addresses to 32-bit inst equivalents
-mem:lat         200 12 # memory access latency (<first_chunk> <inter_chunk>)
-mem:width                 16 # memory access bus width (in bytes)
-mem:speed            32.0000 # memory access bus speed (in GHz)
-mem:ports                  8 # memory access port number
-tlb:itlb        itlb:1:4096:64:l # instruction TLB config, i.e., {<config>|none}
-tlb:dtlb        dtlb:1:4096:64:l # data TLB config, i.e., {<config>|none}
-tlb:lat                  250 # inst/data TLB miss latency (in cycles)
-network:rec_algr            0 # receiver algorism for network
-network:net_algr            0 # confliction algorism for network
-res:ialu                   4 # total number of integer ALU's available (per cluster)
-res:imult                  1 # total number of integer multiplier/dividers available (per cluster)
-maxThrds                  64 # Maximum Number of Threads Allowed
-Coherent_Cache          true # Coherent Cache        
-MSI_prot                true # MSI Protocol          
-SPEC                   false # SPEC Benchmarks       
-res:membank                1 # number of data cache banks available (per Cluster to CPU)
-res:memport                2 # total number of memory system ports available (per bank)
-res:fpalu                  4 # total number of floating point ALU's available (per cluster)
-res:fpmult                 1 # total number of floating point multiplier/dividers available (per cluster)
-pcstat              <null> # profile stat(s) against text addr's (mult uses ok)
-bugcompat              false # operate in backward-compatible bugs mode (for testing only)
-hotspot:sampling_intvl        10000 # how many cycles between calls to update_hotspot_stats
-ray:disabled               1 # ray active            
-cpu:trace       ./trace/cpu_blackschole_xy_org.log # file for cpu pipeline trace record
-L2:trace        ./trace/L2_blackschole_xy_org.log # file for L2 trace record
-n_way                      1 # number of clusters assigned to a thread
-n_way_cache                1 # number of cluster caches assigned to a thread
-n_way_adjacent         false # Assigns starting threads at theadid * n_way instead of CLUSTERS/numthreads * threadid (well the min of the two choices when true)
-uni-lat-comm           false # All communications take 1 cycle if from 2 different nodes
-two-lat-comm           false # All communications take 2 cycle if from 2 different nodes (1 cycle for adjacent)
-link:type           <null> # The link definitions, 'name:type:width:hoptime:physics' with type like 'ER' and physics of 'electrical' or 'optical'
-link:custom         <null> # Custom link destination definition, 'name:to0,to1,...' with toi = -1 for no link, specifyig where the link goes from each core.
-fe_link_time              -1 # Fixed time for a cluster node to communicate with the FE. If negative, it will use a noncongested electrical network instead.
-hotspot:flp   /home/vax2/u27/xue/CMP_baseline/run/floorplan.flp # floorplan file (.flp))
-hotspot:init        <null> # hotspot temperature initialization file
-hotspot:steady  hotspot.out # hotspot temperature steady-state (output) file
-hotspot:t_interface      30.0000 # hotspot thermal interface material (thermal paste) thickness, in microns
-hotspot:dump_freq           30 # one in this many calls to update_hotspot_stats will print current temps
-hotspot:base_proc_freq 2500000000.0000 # base processor frequency in Hz
-hotspot:active        false # Turns HotSpot on      
-network                 MESH # network type {FSOI|MESH|COMB|HYBRID}
-network:intercfg         FSOI # inter chip network config {FSOI|MESH}
-network:intracfg         MESH # intra chip network config {FSOI|MESH}
-network:chipnum            4 # number of chips in whole system
-network:input_buffer_size            0 # input buffer size (flit unit)
-network:output_buffer_size           16 # output buffer size (flit unit)
-network:output_ports            1 # output buffer ports   
-network:packet_queue_size          256 # packet queue size (packet unit, used for output buffer)
-network:meta_receivers            2 # total number of receivers for meta packets
-network:data_receivers            2 # total number of receivers for data packets
-network:transmitters            1 # total numbers of transmitters
-network:confirmation_trans            1 # number of confirmation transmitters
-network:confirmation_receiver            1 # number of confirmation receiver
-network:laser_cycle           12 # laser cycle (1 CPU cycle)
-network:meta_transmitter_size            6 # how many bits can be transfered in one laser cycle
-network:data_transmitter_size            6 # how many bits can be transfered in one laser cycle
-network:flit_size           72 # flit size (bits)      
-network:data_packet_size            5 # Data packet size      
-network:meta_packet_size            1 # meta packet size      
-network:confirmation_bit            1 # confirmation bit      
-network:laser_warmup_time            1 # laser warm up time    
-network:laser_setup_time            1 # laser set up time     
-network:laser_switchoff_timeout            1 #                       
-network:data_chan_timeslot            1 #                       
-network:meta_chan_timeslot            1 #                       
-network:exp_backoff            1 #                       
-network:first_slot_num       3.0000 #                       
-network:retry_algr            0 #                       
-network:TBEB_algr            0 #                       
-network:confirmation_time            1 #                       
-mesh_network:buffer_size           12 #                       
-mesh_network:outbuffer_size            1 #                       
-mesh_network:mesh_flit_size           64 #                       
-mesh_network:vc_num            1 #                       
-mesh_network:routing_algr            0 #                       
-mesh_network:phit_size           64 #                       
-flow_trace      ./trace/flow_blackschole_xy_org.log #                       
-router_trace    ./trace/router_blackschole_xy_org.log #                       

####### Network configuration #######

Optical interconnect

Popnet interconnect

Confirmation based optimazation for Invalidation

Write back split in network level

Inorder probability-based scheduling (IRD)

Ordering by addr

###### network configuration end ######

  Pipetrace range arguments are formatted as follows:

    {{@|#}<start>}:{{@|#|+}<end>}

  Both ends of the range are optional, if neither are specified, the entire
  execution is traced.  Ranges that start with a `@' designate an address
  range to be traced, those that start with an `#' designate a cycle count
  range.  All other range values represent an instruction count range.  The
  second argument, if specified with a `+', indicates a value relative
  to the first argument, e.g., 1000:+100 == 1000:1100.  Program symbols may
  be used in all contexts.

    Examples:   -ptrace FOO.trc #0:#1000
                -ptrace BAR.trc @2000:
                -ptrace BLAH.trc :1500
                -ptrace UXXE.trc :
                -ptrace FOOBAR.trc @main:+278

  Branch predictor configuration examples for 2-level predictor:
    Configurations:   N, M, W, X
      N   # entries in first level (# of shift register(s))
      W   width of shift register(s)
      M   # entries in 2nd level (# of counters, or other FSM)
      X   (yes-1/no-0) xor history and address for 2nd level index
    Sample predictors:
      GAg     : 1, W, 2^W, 0
      GAp     : 1, W, M (M > 2^W), 0
      PAg     : N, W, 2^W, 0
      PAp     : N, W, M (M == 2^(N+W)), 0
      gshare  : 1, W, 2^W, 1
  Predictor `comb' combines a bimodal and a 2-level predictor.

  The cache config parameter <config> has the following format:

    <name>:<nsets>:<bsize>:<assoc>:<repl>

    <name>   - name of the cache being defined
    <nsets>  - number of sets in the cache
    <bsize>  - block size of the cache
    <assoc>  - associativity of the cache
    <repl>   - block replacement strategy, 'l'-LRU, 'f'-FIFO, 'r'-random

    Examples:   -cache:dl1 dl1:4096:32:1:l
                -dtlb dtlb:128:4096:32:r

  Cache levels can be unified by pointing a level of the instruction cache
  hierarchy at the data cache hiearchy using the "dl1" and "dl2" cache
  configuration arguments.  Most sensible combinations are supported, e.g.,

    A unified l2 cache (il2 is pointed at dl2):
      -cache:il1 il1:128:64:1:l -cache:il2 dl2
      -cache:dl1 dl1:256:32:1:l -cache:dl2 ul2:1024:64:2:l

    Or, a fully unified cache hierarchy (il1 pointed at dl1):
      -cache:il1 dl1
      -cache:dl1 ul1:256:32:1:l -cache:dl2 ul2:1024:64:2:l



Issueq size   - int 16 fp 16
rename Pregfile size - int 64 fp 64
CLUSTERS 64
ROWCOUNT 4
CENTRAL_CACHE 0
CENTRALCACHELAT 0
CACHELOC 0
PRED_BR_CHANGES 0
PRED_JR_CHANGES 0
DYNAMIC_CHANGE 0
METRIC_CHANGE 0
LINEAR_PHASE 0
SMALLEST_CONFIG 64
GRID 0
CACHEPORTS 64
RES_CACHEPORTS 64
READY_COMM 1
HOLY_REGS 0
NUM_H_REGS 3
COPY_THRESH 50
FIRST_FIT 0
FIRST_FIT_ENFORCE 0
FIRST_VAL 10000
STEER_ENFORCE 0
MOD_N 0
MOD_N_N 8
FIRST_MOD 0
GROUPSIZE 4
MOD_N_T 2
ANYWILLDO 1
NEIGHBOR_SEEK 32
PICKMIDDLE 0
MIDTHRESH 16
HOPTIME 1
COMM_LATENCY 32
CACHE_REFILL_LAT 0
MPRED_COMM_LAT 0
LD_PROXIMITY 0
LDPROX_FACTOR 256
STEER_2NONREADY 0
STEER_CRITICAL 0
ILOAD_MIN 1
IFACTOR 4
RLOAD_MIN 1
RFACTOR 1
DEP_FACTOR 64
LD_FACTOR 0
IQBUF 0
REGFREE 0
FREE_CURR_REGS 0
FREE_INTERVAL 1
DISPDELAY 0
RING_BW 1
TIMEWINDOW 5000
ST_ADDR_COMM 1
ST_RING_BW 1
RING_IC 1
IGNORE_COMM_LATENCY 1
TOL_COUNT 0
STOREDELAY 1
BANKPRED 1
BANKMISPREDLAT 1
BANKP_SPEC 0
LEV1SIZE 1024
LEV2SIZE 4096
XORSIZE 12
WORD_INTERLEAVED 0
WORDSIZE 8
SORT 0
NUMPHASES 64
MIN_INSN_INT 10000
STOP_EXPL_THRESH -5
ILPTAGCHECK 1
DISTILP 120
DISTILPTHRESH 30
SAMPLETHRESH 10
BR_INT 8
ITABLESIZE 16384
OWINDOWSIZE 360
ILPCLEARINT 10000000
STATPRINT 0
CYCNOISE 10
NUMCYCTHRESH 5
STATINT 10000
FREE_REG_THRESH 4000
TABLE2SIZE 4096
TABLESIZE 4096
Thread 0, sim: ** fast forwarding 0 insts **
Context 0 Allocating thread ID at 1: 0
Context 0 Allocating thread ID at 2: 0
Context 0 Allocating thread ID at 3: 0
Context 0 Allocating thread ID at 4: 0
Context 0 Allocating thread ID at 5: 0
Context 0 Allocating thread ID at 6: 0
Context 0 Allocating thread ID at 7: 0
Context 0 Allocating thread ID at 8: 0
Context 0 Allocating thread ID at 9: 0
Context 0 Allocating thread ID at 10: 0
Context 0 Allocating thread ID at 11: 0
Context 0 Allocating thread ID at 12: 0
Context 0 Allocating thread ID at 13: 0
Context 0 Allocating thread ID at 14: 0
Context 0 Allocating thread ID at 15: 0
Context 0 Allocating thread ID at 16: 0
Context 0 Allocating thread ID at 17: 0
Context 0 Allocating thread ID at 18: 0
Context 0 Allocating thread ID at 19: 0
Context 0 Allocating thread ID at 20: 0
Context 0 Allocating thread ID at 21: 0
Context 0 Allocating thread ID at 22: 0
Context 0 Allocating thread ID at 23: 0
Context 0 Allocating thread ID at 24: 0
Context 0 Allocating thread ID at 25: 0
Context 0 Allocating thread ID at 26: 0
Context 0 Allocating thread ID at 27: 0
Context 0 Allocating thread ID at 28: 0
Context 0 Allocating thread ID at 29: 0
Context 0 Allocating thread ID at 30: 0
Context 0 Allocating thread ID at 31: 0
Context 0 Allocating thread ID at 32: 0
Context 0 Allocating thread ID at 33: 0
Context 0 Allocating thread ID at 34: 0
Context 0 Allocating thread ID at 35: 0
Context 0 Allocating thread ID at 36: 0
Context 0 Allocating thread ID at 37: 0
Context 0 Allocating thread ID at 38: 0
Context 0 Allocating thread ID at 39: 0
Context 0 Allocating thread ID at 40: 0
Context 0 Allocating thread ID at 41: 0
Context 0 Allocating thread ID at 42: 0
Context 0 Allocating thread ID at 43: 0
Context 0 Allocating thread ID at 44: 0
Context 0 Allocating thread ID at 45: 0
Context 0 Allocating thread ID at 46: 0
Context 0 Allocating thread ID at 47: 0
Context 0 Allocating thread ID at 48: 0
Context 0 Allocating thread ID at 49: 0
Context 0 Allocating thread ID at 50: 0
Context 0 Allocating thread ID at 51: 0
Context 0 Allocating thread ID at 52: 0
Context 0 Allocating thread ID at 53: 0
Context 0 Allocating thread ID at 54: 0
Context 0 Allocating thread ID at 55: 0
Context 0 Allocating thread ID at 56: 0
Context 0 Allocating thread ID at 57: 0
Context 0 Allocating thread ID at 58: 0
Context 0 Allocating thread ID at 59: 0
Context 0 Allocating thread ID at 60: 0
Context 0 Allocating thread ID at 61: 0
Context 0 Allocating thread ID at 62: 0
Context 0 Allocating thread ID at 63: 0
Initialization over: timing simulation can start now
sim: ** starting performance simulation **
 THRD_WAY_CACHE
 N_WAY_CACHE: default only,  1
PARTITIONED_LSQ
DE_CENTRALIZED_LSQ
 DE_CENTRALIZED_POWER_BUG
SPLIT_LSQ
 PWR_DE_CENTRALIZED_LSQ
ALLOW_ANY_CLUSTER
N_WAY_STEER ,N_WAY:default 1 
SELECTIVE_DISPATCH
INST_TRANS_RATE
 TRACE_REG
IGNORE_ALL_COMM_LATENCY
IGNORE_MEM_COMM_LATENCY
FETCH_ONE_BLOCK 
MSHR , MSHRSIZE 10000000
NO_EXTRA_REG
PORT_PER_BANK
LINE_INTERLEAVED
PWR_CLUSTER,ISSUE_PER_CLUSTER 
PWR__SMT_RR
REMOVE_ILP = 1
HOPTIME = 1
CENTRALIZED_CACHE_BANK
IGNORE_MEM_COMM_LATENCY
DO_DYNAMIC_ADAPTATION = 0
N_WAY = 1
n_way_cache = 1
Total Pregfile size - int 64 fp 64
[INFO]: sim_cycle= 18985	sim_num_insn=2002	Progress=2	data_packets_generate=1362	meta_packets=2056	barriers=0	locks=0
[INFO]: sim_cycle= 20778	sim_num_insn=4002	Progress=4	data_packets_generate=564	meta_packets=670	barriers=0	locks=0
[INFO]: sim_cycle= 22121	sim_num_insn=6002	Progress=6	data_packets_generate=494	meta_packets=601	barriers=0	locks=0
[INFO]: sim_cycle= 23162	sim_num_insn=8000	Progress=8	data_packets_generate=355	meta_packets=413	barriers=0	locks=0
[INFO]: sim_cycle= 24312	sim_num_insn=10004	Progress=10	data_packets_generate=433	meta_packets=537	barriers=0	locks=0
[INFO]: sim_cycle= 25207	sim_num_insn=12002	Progress=12	data_packets_generate=322	meta_packets=358	barriers=0	locks=0
[INFO]: sim_cycle= 26269	sim_num_insn=14000	Progress=14	data_packets_generate=387	meta_packets=423	barriers=0	locks=0
[INFO]: sim_cycle= 26979	sim_num_insn=16008	Progress=16	data_packets_generate=263	meta_packets=298	barriers=0	locks=0
[INFO]: sim_cycle= 27782	sim_num_insn=18001	Progress=18	data_packets_generate=272	meta_packets=326	barriers=0	locks=0
[INFO]: sim_cycle= 28714	sim_num_insn=20000	Progress=20	data_packets_generate=338	meta_packets=375	barriers=0	locks=0
[INFO]: sim_cycle= 29679	sim_num_insn=22002	Progress=22	data_packets_generate=322	meta_packets=358	barriers=0	locks=0
[INFO]: sim_cycle= 30429	sim_num_insn=24005	Progress=24	data_packets_generate=284	meta_packets=338	barriers=0	locks=0
[INFO]: sim_cycle= 31201	sim_num_insn=26000	Progress=26	data_packets_generate=318	meta_packets=332	barriers=0	locks=0
[INFO]: sim_cycle= 31871	sim_num_insn=28000	Progress=28	data_packets_generate=257	meta_packets=256	barriers=0	locks=0
[INFO]: sim_cycle= 32618	sim_num_insn=30001	Progress=30	data_packets_generate=289	meta_packets=301	barriers=0	locks=0
[INFO]: sim_cycle= 33269	sim_num_insn=32002	Progress=32	data_packets_generate=238	meta_packets=254	barriers=0	locks=0
[INFO]: sim_cycle= 33793	sim_num_insn=34000	Progress=34	data_packets_generate=180	meta_packets=187	barriers=0	locks=0
[INFO]: sim_cycle= 34247	sim_num_insn=36000	Progress=36	data_packets_generate=151	meta_packets=117	barriers=0	locks=0
[INFO]: sim_cycle= 34390	sim_num_insn=38017	Progress=38	data_packets_generate=34	meta_packets=41	barriers=0	locks=0
[INFO]: sim_cycle= 34501	sim_num_insn=40007	Progress=40	data_packets_generate=21	meta_packets=39	barriers=0	locks=0
[INFO]: sim_cycle= 34633	sim_num_insn=42014	Progress=42	data_packets_generate=32	meta_packets=32	barriers=0	locks=0
[INFO]: sim_cycle= 34804	sim_num_insn=44004	Progress=44	data_packets_generate=62	meta_packets=64	barriers=0	locks=0
[INFO]: sim_cycle= 35233	sim_num_insn=46000	Progress=46	data_packets_generate=114	meta_packets=130	barriers=0	locks=0
[INFO]: sim_cycle= 35815	sim_num_insn=48000	Progress=48	data_packets_generate=172	meta_packets=160	barriers=0	locks=0
[INFO]: sim_cycle= 36339	sim_num_insn=50006	Progress=50	data_packets_generate=156	meta_packets=160	barriers=0	locks=0
[INFO]: sim_cycle= 36775	sim_num_insn=52003	Progress=52	data_packets_generate=133	meta_packets=141	barriers=0	locks=0
[INFO]: sim_cycle= 37499	sim_num_insn=54003	Progress=54	data_packets_generate=226	meta_packets=198	barriers=0	locks=0
[INFO]: sim_cycle= 37838	sim_num_insn=56000	Progress=56	data_packets_generate=109	meta_packets=112	barriers=0	locks=0
[INFO]: sim_cycle= 38334	sim_num_insn=58001	Progress=58	data_packets_generate=148	meta_packets=149	barriers=0	locks=0
[INFO]: sim_cycle= 38851	sim_num_insn=60004	Progress=60	data_packets_generate=154	meta_packets=144	barriers=0	locks=0
[INFO]: sim_cycle= 39246	sim_num_insn=62002	Progress=62	data_packets_generate=98	meta_packets=101	barriers=0	locks=0
[INFO]: sim_cycle= 39886	sim_num_insn=64005	Progress=64	data_packets_generate=152	meta_packets=150	barriers=0	locks=0
[INFO]: sim_cycle= 40423	sim_num_insn=66004	Progress=66	data_packets_generate=129	meta_packets=134	barriers=0	locks=0
[INFO]: sim_cycle= 40929	sim_num_insn=68001	Progress=68	data_packets_generate=121	meta_packets=110	barriers=0	locks=0
[INFO]: sim_cycle= 41467	sim_num_insn=70003	Progress=70	data_packets_generate=119	meta_packets=120	barriers=0	locks=0
[INFO]: sim_cycle= 42002	sim_num_insn=72001	Progress=72	data_packets_generate=132	meta_packets=142	barriers=0	locks=0
[INFO]: sim_cycle= 42463	sim_num_insn=74007	Progress=74	data_packets_generate=135	meta_packets=115	barriers=0	locks=0
[INFO]: sim_cycle= 43065	sim_num_insn=76004	Progress=76	data_packets_generate=158	meta_packets=160	barriers=0	locks=0
[INFO]: sim_cycle= 43713	sim_num_insn=78003	Progress=78	data_packets_generate=174	meta_packets=173	barriers=0	locks=0
[INFO]: sim_cycle= 44268	sim_num_insn=80003	Progress=80	data_packets_generate=132	meta_packets=120	barriers=0	locks=0
[INFO]: sim_cycle= 44565	sim_num_insn=82000	Progress=82	data_packets_generate=53	meta_packets=59	barriers=0	locks=0
[INFO]: sim_cycle= 45021	sim_num_insn=84003	Progress=84	data_packets_generate=93	meta_packets=94	barriers=0	locks=0
[INFO]: sim_cycle= 45633	sim_num_insn=86002	Progress=86	data_packets_generate=111	meta_packets=141	barriers=0	locks=0
[INFO]: sim_cycle= 46030	sim_num_insn=88003	Progress=88	data_packets_generate=53	meta_packets=141	barriers=0	locks=0
[INFO]: sim_cycle= 46546	sim_num_insn=90003	Progress=90	data_packets_generate=148	meta_packets=134	barriers=0	locks=0
[INFO]: sim_cycle= 46828	sim_num_insn=92005	Progress=92	data_packets_generate=68	meta_packets=59	barriers=0	locks=0
[INFO]: sim_cycle= 47028	sim_num_insn=94004	Progress=94	data_packets_generate=50	meta_packets=47	barriers=0	locks=0
[INFO]: sim_cycle= 47236	sim_num_insn=96012	Progress=96	data_packets_generate=49	meta_packets=48	barriers=0	locks=0
[INFO]: sim_cycle= 47466	sim_num_insn=98006	Progress=98	data_packets_generate=49	meta_packets=52	barriers=0	locks=0
[INFO 2]: sim_num_insn=100002, barriers=0
sim: ** simulation statistics **
pure_num_insn                100002 			# total number of instructions committed not including synchronization instructions
total_num_insn               112951 			# total number of instructions committed including synchronization instructions
TotalBarriers                     0 			# total number of barriers
TotalLocks                        0 			# total number of locks
sim_num_refs                  25512 			# total number of loads and stores committed
sim_num_loads                 18582 			# total number of loads committed
sim_num_stores            6930.0000 # total number of stores committed
sim_num_branches              14020 			# total number of branches committed
sim_elapsed_time                 48 # total simulation time in seconds
sim_inst_rate             2353.1458 # simulation speed (in insts/sec)
sim_total_insn               215615 			# total number of instructions executed
sim_total_refs                29163 			# total number of loads and stores executed
sim_total_loads               21328 			# total number of loads executed
sim_total_stores          7835.0000 # total number of stores executed
sim_total_branches            17249 			# total number of branches executed
realSimCycle                  47677 			# 
sim_IPC                <error: variable is undefined: sim_cycle> # instructions per cycle
realSimIPC                   2.0975 # 
mainEffectiveIPC       <error: variable is undefined: main_thread_stall_count> # 
num_of_invalidations              0 			# Number_Of_Validations
sim_CPI                <error: variable is undefined: sim_cycle> # cycles per instruction
sim_exec_BW            <error: variable is undefined: sim_cycle> # total instructions (mis-spec + committed) per cycle
ldIssueCount                  19949 			# total ld issue attmept
pullbackCycleCnt_0               71 			# 
max_lsq_num                       0 			# 
total_data_counts             10388 			# total num of data packets in all
total_meta_counts             11877 			# total num of meta packets in all
total_data_sync_counts            0 			# total num of data sync packets in all
total_meta_sync_counts            0 			# total num of meta sync packets in all
total_optical_data_counts            0 			# total num of data packets in optical network
total_optical_meta_counts            0 			# total num of meta packets in optical network
total_mesh_data_counts            0 			# total num of data packets in mesh network
total_mesh_meta_counts            0 			# total num of meta packets in mesh network
total_sync_writeup                0 			# total num of event inital created
total_sync_writemiss              0 			# total num of event inital created
total_sync_readmiss               0 			# total num of event inital created
total_normal_event_count         3064 			# total num of event inital created
total_sync_event_count            0 			# total num of event inital created
total_event_count              3064 			# total num of event inital created
total_write_indicate              0 			# 
total_exclusive_modified            0 			# 
total_exclusive_conf              0 			# 
total_exclusive_cross             0 			# 
total_prefetch_wb_early            0 			# total num of event created due to L1 prefetch
total_prefetch_l1_count            0 			# total num of event created due to L1 prefetch
total_prefetch_l2_count            0 			# total num of event created due to L2 prefetch
total_prefetch_l1_first_count            0 			# total num of event created due to L1 prefetch
total_prefetch_l1_sec_count            0 			# total num of event created due to L1 prefetch
total_prefetch_l1_usefull            0 			# total num of usefull L1 prefetch
total_prefetch_l1_writeafter            0 			# total num of usefull L1 prefetch
sim_num_insn                 112951 			# total number of instructions committed not including consistency replay instructions
sim_cycle                                                       47677 			# total simulation time in cycles
replace_history                                                     8 			# depth of replace history
coherence_history                                                   8 			# depth of coherence history
prefetch_replace_history                                            1 			# depth of prefetch replace history
L1_miss_table_size                                                 32 			# L1_miss_table_size
L1_stream_entries                                                  16 			# L1_stream_entries
L2_miss_table_size                                                 16 			# L2_miss_table_size
L2_stream_entries                                                   8 			# L2_stream_entries
Total_MetaPackets_Num                                           11670 			# total number of MetaPackets
Total_DataPackets_Num                                           10214 			# total number of DataPackets
total_L2_MEM_L2Prefetch_Req                                         0 			# total_L2_MEM_L2Prefetch_Req
total_L2_MEM_Data_Miss_Req                                        809 			# total_L2_MEM_Data_Miss_Req
total_L2_MEM_Inst_Miss_Req                                         93 			# total_L2_MEM_Inst_Miss_Req
total_MEM_L2_Data_Payload                                        1608 			# total_MEM_L2_Data_Payload
total_MEM_L2_Inst_Payload                                         188 			# total_MEM_L2_Inst_Payload
total_L2_MEM_Data_Payload                                           0 			# total_L2_MEM_Data_Payload
total_L1_L2_Inst_Miss_Req                                        5599 			# total_L1_L2_Inst_Miss_Req
total_L2_L1_Inst_Payload                                         5541 			# total_L2_L1_Inst_Payload
total_L1_L2_Data_Read_Miss_Req                                   2800 			# total_L1_L2_Data_Read_Miss_Req
total_L2_L1_Data_Read_Miss_Payload                               2770 			# total_L2_L1_Data_Read_Miss_Payload
total_L2_L1_Data_Read_Invalid                                     160 			# total_L2_L1_Data_Read_Invalid
total_L1_L2_Data_Read_Invalid_Ack                                  73 			# total_L1_L2_Data_Read_Invalid_Ack
total_L1_L2_Data_Read_Invalid_Payload                              87 			# total_L1_L2_Data_Read_Invalid_Payload
total_L1_L2_Data_Write_Miss_Req                                   216 			# total_L1_L2_Data_Write_Miss_Req
total_L2_L1_Data_Write_Miss_Payload                               221 			# total_L2_L1_Data_Write_Miss_Payload
total_L2_L1_Data_L2replaced_Invalid                                 1 			# total_L2_L1_Data_L2replaced_Invalid
total_L2_L1_Data_Write_Invalid                                    291 			# total_L2_L1_Data_Write_Invalid
total_L1_L2_Data_L2replaced_Invalid_Ack                             0 			# total_L1_L2_Data_L2replaced_Invalid_Ack
total_L1_L2_Data_Write_Invalid_Ack                                  7 			# total_L1_L2_Data_Write_Invalid_Ack
total_L1_L2_Data_L2replaced_Invalid_Payload                         1 			# total_L1_L2_Data_L2replaced_Invalid_Payload
total_L1_L2_Data_Write_Invalid_Payload                            284 			# total_L1_L2_Data_Write_Invalid_Payload
total_L1_L2_Data_Write_Update                                      73 			# total_L1_L2_Data_Write_Update
total_L2_L1_Data_Write_Update_Ack                                  65 			# total_L2_L1_Data_Write_Update_Ack
total_L1_L2_Data_Writeback_Payload                                  2 			# total_L1_L2_Data_Writeback_Payload
total_L2_L1_Data_Verify_Ack                                         0 			# total_L2_L1_Data_Verify_Ack
total_L2_L1_Data_Verify_Playload                                    0 			# total_L2_L1_Data_Verify_Playload
total_L2_L1_Data_Prefetch_Playload_PPP                              0 			# total_L2_L1_Data_Prefetch_Playload_PPP
total_L1_L2_Read_Verify_Req                                         0 			# total_L1_L2_Read_Verify_Req
total_L1_L2_Write_Verify_Req                                        0 			# total_L1_L2_Write_Verify_Req
total_L1_L2_shr_tlb_miss_Req                                      743 			# total_L1_L2_shr_tlb_miss_Req
total_L1_L2_shr_tlb_write_back_Req                                  0 			# total_L1_L2_shr_tlb_write_back_Req
total_L1_L2_shr_tlb_sr_recovery_Req                                 0 			# total_L1_L2_shr_tlb_sr_recovery_Req
total_L1_L2_shr_tlb_update_pr_ack_Req                               0 			# total_L1_L2_shr_tlb_update_pr_ack_Req
total_L1_L2_shr_tlb_update_pw_ack_Req                               0 			# total_L1_L2_shr_tlb_update_pw_ack_Req
total_L1_L2_shr_tlb_recovery_ack_Req                                0 			# total_L1_L2_shr_tlb_recovery_ack_Req
total_L1_L2_dir_tlb_refill_Req                                    705 			# total_L1_L2_dir_tlb_refill_Req
total_L1_L2_dir_tlb_update_Req                                      0 			# total_L1_L2_dir_tlb_update_Req
total_L1_L2_dir_tlb_recovery_Req                                    0 			# total_L1_L2_dir_tlb_recovery_Req
total_L2_L1_dir_shr_read                                            0 			# total_L2_L1_dir_shr_read
total_L1_L2_ack_shr_read                                            0 			# total_L1_L2_ack_shr_read
total_L1_L2_inform_back                                             7 			# total_L1_L2_inform_back
total_TSHR_Full                                                     0 			# total_TSHR_Full
level1_data_cache_access                                        18180 			# total num of level1 data cache_access
level1_data_cache_access_read                                   11827 			# total num of level1 data cache_access_read
level1_data_cache_access_write                                   6353 			# total num of level1 data cache_access_write
level1_data_cache_access_read_hit                                9049 			# total num of level1 data cache_access_read_hit
level1_data_cache_access_read_miss                               2778 			# total num of level1 data cache_access_read_miss
level1_data_cache_access_read_compulsory_miss                       0 			# total num of level1 data cache_access_read_compulsory_miss
level1_data_cache_access_read_capacity_miss                         0 			# total num of level1 data cache_access_read_capacity_miss
level1_data_cache_access_read_coherence_miss                        0 			# total num of level1 data cache_access_read_coherence_miss
level1_data_cache_access_read_prefetch_capacity_miss                0 			# total num of level1 data cache_access_read_prefetch_capacity_miss
level1_data_cache_access_write_miss                               214 			# total num of level1 data cache_access_write_miss
level1_data_cache_access_write_compulsory_miss                      0 			# total num of level1 data cache_access_write_compulsory_miss
level1_data_cache_access_write_capacity_miss                        0 			# total num of level1 data cache_access_write_capacity_miss
level1_data_cache_access_write_coherence_miss                       0 			# total num of level1 data cache_access_write_coherence_miss
level1_data_cache_access_write_prefetch_capacity_miss               0 			# total num of level1 data cache_access_write_prefetch_capacity_miss
level1_data_cache_access_write_local                             6067 			# total num of level1 data cache_access_write_local
level1_data_cache_access_write_local_FPP                            0 			# total num of level1 data cache_access_write_local_FPP
level1_data_cache_access_write_update                              72 			# total num of level1 data cache_access_write_update
read_L1_miss_L2_hit_num                                             0 			# read L1 miss L2 hit num 
read_L1_miss_L2_hit_total_time                                      0 			# read L1 miss L2 hit total time
read_L2_miss_num                                                 2767 			# read L2 miss num
read_L2_miss_total_time                                        482236 			# read L2 miss total time 
write_L1_miss_L2_hit_num                                          221 			# write L1 miss L2 hit num
write_L1_miss_L2_hit_total_time                                 74986 			# write L1 miss L2 hit total time
write_L2_miss_num                                                   0 			# write L2 miss num
write_L2_miss_total_time                                            0 			# write L2 miss total time
total_page_num                                                     52 			# total_page_num
pr_page_num                                                        52 			# pr_page_num
pw_page_num                                                         0 			# pw_page_num
sr_page_num                                                         0 			# sr_page_num
sw_page_num                                                         0 			# sw_page_num
total_line_num                                                    809 			# total_line_num
pr_line_num                                                       431 			# pr_line_num
pw_line_num                                                       291 			# pw_line_num
sr_line_num                                                        67 			# sr_line_num
sw_line_num                                                        20 			# sw_line_num
SWP_total_line                                                    807 			# SWP_total_line
SWP_sw_line                                                        20 			# SWP_sw_line
SWP_sr_line                                                        67 			# SWP_sr_line
SWP_pw_line                                                       290 			# SWP_pw_line
SWP_pr_line                                                       430 			# SWP_pr_line
recall_num                                                          1 			# recall_num
recall_inv_num                                                      1 			# recall_inv_num
read_inv_S_num                                                    160 			# read_inv_S_num
read_inv_QH_num                                                     0 			# read_inv_QH_num
read_inv_e_QM_num                                                   0 			# read_inv_e_QM_num
read_inv_d_QM_num                                                   0 			# read_inv_d_QM_num
write_inv_d_S_num                                                   7 			# write_inv_d_S_num
write_inv_e_S_num                                                   0 			# write_inv_e_S_num
write_inv_s_S_num                                                 277 			# write_inv_s_S_num
write_inv_i_S_num                                                   7 			# write_inv_i_S_num
write_inv_d_QM_num                                                  0 			# write_inv_d_QM_num
write_inv_e_QM_num                                                  0 			# write_inv_e_QM_num
write_inv_s_QM_num                                                  0 			# write_inv_s_QM_num
write_inv_i_QM_num                                                  0 			# write_inv_i_QM_num
write_inv_d_QH_num                                                  0 			# write_inv_d_QH_num
write_inv_e_QH_num                                                  0 			# write_inv_e_QH_num
write_inv_s_QH_num                                                  0 			# write_inv_s_QH_num
write_inv_i_QH_num                                                  0 			# write_inv_i_QH_num
recall_inv_d_S_num                                                  0 			# recall_inv_d_S_num
recall_inv_e_S_num                                                  1 			# recall_inv_e_S_num
recall_inv_s_S_num                                                  0 			# recall_inv_s_S_num
recall_inv_i_S_num                                                  0 			# recall_inv_i_S_num
recall_inv_d_Q_num                                                  0 			# recall_inv_d_Q_num
recall_inv_e_Q_num                                                  0 			# recall_inv_e_Q_num
recall_inv_s_Q_num                                                  0 			# recall_inv_s_Q_num
recall_inv_i_Q_num                                                  0 			# recall_inv_i_Q_num
SW_read_request_num                                              2778 			# SW_read_request_num
SW_write_request_num                                              286 			# SW_write_request_num
read_S_hit_num                                                   2770 			# read_S_hit_num
read_Q_hit_num                                                      0 			# read_Q_hit_num
read_Q_init_num                                                   610 			# read_Q_init_num
read_Q_init_SR_num                                                  1 			# read_Q_init_SR_num
read_Q_init_QR_num                                                  0 			# read_Q_init_QR_num
write_S_hit_num                                                   286 			# write_S_hit_num
write_Q_hit_num                                                     0 			# write_Q_hit_num
write_S_init_ed_num                                                 0 			# write_S_init_ed_num
write_S_init_ed_SR_num                                              0 			# write_S_init_ed_SR_num
write_S_init_ed_QR_num                                              0 			# write_S_init_ed_QR_num
write_S_init_s_num                                                  0 			# write_S_init_s_num
write_S_init_s_SR_num                                               0 			# write_S_init_s_SR_num
write_S_init_s_QR_num                                               0 			# write_S_init_s_QR_num
write_Q_init_num                                                  199 			# write_Q_init_num
write_Q_init_SR_num                                                 0 			# write_Q_init_SR_num
write_Q_init_QR_num                                                 0 			# write_Q_init_QR_num
shr_data_req_initial_num                                            0 			# shr_data_req_initial_num
shr_data_req_total_num                                              0 			# shr_data_req_total_num
shr_data_req_fail_num                                               0 			# shr_data_req_fail_num
inform_back_num                                                     7 			# inform_back_num
write_back_num                                                      2 			# write_back_num
inform_back_Q                                                       0 			# inform_back_Q
inform_back_S                                                       7 			# inform_back_S
write_back_Q                                                        0 			# write_back_Q
write_back_S                                                        2 			# write_back_S
mb_pain_delay_num                                                   0 			# mb_pain_delay_num
mb_pain_portuse_num                                                 0 			# mb_pain_portuse_num
read_Q_init_QR_s_num                                                0 			# read_Q_init_QR_s_num
read_Q_init_QR_ed_num                                               0 			# read_Q_init_QR_ed_num
write_S_init_ed_QR_s_num                                            0 			# write_S_init_ed_QR_s_num
write_S_init_ed_QR_ed_num                                           0 			# write_S_init_ed_QR_ed_num
write_S_init_s_QR_s_num                                             0 			# write_S_init_s_QR_s_num
write_S_init_s_QR_ed_num                                            0 			# write_S_init_s_QR_ed_num
write_Q_init_QR_s_num                                               0 			# write_Q_init_QR_s_num
write_Q_init_QR_ed_num                                              0 			# write_Q_init_QR_ed_num
recall_inv_d_Q_s_num                                                0 			# recall_inv_d_Q_s_num
recall_inv_d_Q_ed_num                                               0 			# recall_inv_d_Q_ed_num
recall_inv_e_Q_s_num                                                0 			# recall_inv_e_Q_s_num
recall_inv_e_Q_ed_num                                               0 			# recall_inv_e_Q_ed_num
recall_inv_s_Q_s_num                                                0 			# recall_inv_s_Q_s_num
recall_inv_s_Q_ed_num                                               0 			# recall_inv_s_Q_ed_num
recall_inv_i_Q_s_num                                                0 			# recall_inv_i_Q_s_num
recall_inv_i_Q_ed_num                                               0 			# recall_inv_i_Q_ed_num
recall_inv_d_Q_s_ad_num                                             0 			# recall_inv_d_Q_s_ad_num
recall_inv_e_Q_s_ad_num                                             0 			# recall_inv_e_Q_s_ad_num
recall_inv_s_Q_ed_ad_num                                            0 			# recall_inv_s_Q_ed_ad_num
line_access_num                                                 14604 			# line_access_num
SWP_line_access_num                                             14604 			# SWP_line_access_num
SWP_PR_line_access_num                                            864 			# SWP_PR_line_access_num
SWP_PW_line_access_num                                           4850 			# SWP_PW_line_access_num
SWP_SR_line_access_num                                           6888 			# SWP_SR_line_access_num
SWP_SW_line_access_num                                           1193 			# SWP_SW_line_access_num
PVC_vector_distr_record_num                                      2770 			# PVC_vector_distr_record_num
PVC_vector_inc_distr_record_num                                   160 			# PVC_vector_inc_distr_record_num
PVC_vector_distr_0                                               605 			# 
PVC_vector_distr_1                                              2165 			# 
PVC_vector_distr_2                                                 0 			# 
PVC_vector_distr_3                                                 0 			# 
PVC_vector_distr_4                                                 0 			# 
PVC_vector_distr_5                                                 0 			# 
PVC_vector_distr_6                                                 0 			# 
PVC_vector_distr_7                                                 0 			# 
PVC_vector_distr_8                                                 0 			# 
PVC_vector_inc_distr_0                                           160 			# 
PVC_vector_inc_distr_1                                             0 			# 
PVC_vector_inc_distr_2                                             0 			# 
PVC_vector_inc_distr_3                                             0 			# 
PVC_vector_inc_distr_4                                             0 			# 
PVC_vector_inc_distr_5                                             0 			# 
PVC_vector_inc_distr_6                                             0 			# 
PVC_vector_inc_distr_7                                             0 			# 
PVC_vector_inc_distr_8                                             0 			# 
PVC_exchange_num                                                    0 			# PVC_exchange_num
PVC_flip_num                                                        0 			# PVC_flip_num
PVC_dowm_no_inv_num                                                 0 			# PVC_dowm_no_inv_num
PVC_dowm_inv_num                                                    0 			# PVC_dowm_inv_num
PVC_dowm_inv_shr_num                                                0 			# PVC_dowm_inv_shr_num
PVC_up_no_add_num                                                   0 			# PVC_up_no_add_num
PVC_up_add_num                                                      0 			# PVC_up_add_num
PVC_up_add_shr_num                                                  0 			# PVC_up_add_shr_num
PVC_exch_vec_shr_distr_0                                           0 			# 
PVC_exch_vec_shr_distr_1                                           0 			# 
PVC_exch_vec_shr_distr_2                                           0 			# 
PVC_exch_vec_shr_distr_3                                           0 			# 
PVC_exch_vec_shr_distr_4                                           0 			# 
PVC_exch_vec_shr_distr_5                                           0 			# 
PVC_exch_vec_shr_distr_6                                           0 			# 
PVC_exch_vec_shr_distr_7                                           0 			# 
PVC_exch_vec_shr_distr_8                                           0 			# 
PVC_exch_vec_shr_distr_9                                           0 			# 
PVC_exch_vec_shr_distr_10                                           0 			# 
PVC_exch_vec_shr_distr_11                                           0 			# 
PVC_exch_vec_shr_distr_12                                           0 			# 
PVC_exch_vec_shr_distr_13                                           0 			# 
PVC_exch_vec_shr_distr_14                                           0 			# 
PVC_exch_vec_shr_distr_15                                           0 			# 
PVC_exch_vec_shr_distr_16                                           0 			# 
PVC_exch_vec_shr_distr_17                                           0 			# 
PVC_exch_vec_shr_distr_18                                           0 			# 
PVC_exch_vec_shr_distr_19                                           0 			# 
PVC_exch_vec_shr_distr_20                                           0 			# 
PVC_exch_vec_shr_distr_21                                           0 			# 
PVC_exch_vec_shr_distr_22                                           0 			# 
PVC_exch_vec_shr_distr_23                                           0 			# 
PVC_exch_vec_shr_distr_24                                           0 			# 
PVC_exch_vec_shr_distr_25                                           0 			# 
PVC_exch_vec_shr_distr_26                                           0 			# 
PVC_exch_vec_shr_distr_27                                           0 			# 
PVC_exch_vec_shr_distr_28                                           0 			# 
PVC_exch_vec_shr_distr_29                                           0 			# 
PVC_exch_vec_shr_distr_30                                           0 			# 
PVC_exch_vec_shr_distr_31                                           0 			# 
PVC_exch_vec_shr_distr_32                                           0 			# 
PVC_exch_vec_shr_distr_33                                           0 			# 
PVC_exch_vec_shr_distr_34                                           0 			# 
PVC_exch_vec_shr_distr_35                                           0 			# 
PVC_exch_vec_shr_distr_36                                           0 			# 
PVC_exch_vec_shr_distr_37                                           0 			# 
PVC_exch_vec_shr_distr_38                                           0 			# 
PVC_exch_vec_shr_distr_39                                           0 			# 
PVC_exch_vec_shr_distr_40                                           0 			# 
PVC_exch_vec_shr_distr_41                                           0 			# 
PVC_exch_vec_shr_distr_42                                           0 			# 
PVC_exch_vec_shr_distr_43                                           0 			# 
PVC_exch_vec_shr_distr_44                                           0 			# 
PVC_exch_vec_shr_distr_45                                           0 			# 
PVC_exch_vec_shr_distr_46                                           0 			# 
PVC_exch_vec_shr_distr_47                                           0 			# 
PVC_exch_vec_shr_distr_48                                           0 			# 
PVC_exch_vec_shr_distr_49                                           0 			# 
PVC_exch_vec_shr_distr_50                                           0 			# 
PVC_exch_vec_shr_distr_51                                           0 			# 
PVC_exch_vec_shr_distr_52                                           0 			# 
PVC_exch_vec_shr_distr_53                                           0 			# 
PVC_exch_vec_shr_distr_54                                           0 			# 
PVC_exch_vec_shr_distr_55                                           0 			# 
PVC_exch_vec_shr_distr_56                                           0 			# 
PVC_exch_vec_shr_distr_57                                           0 			# 
PVC_exch_vec_shr_distr_58                                           0 			# 
PVC_exch_vec_shr_distr_59                                           0 			# 
PVC_exch_vec_shr_distr_60                                           0 			# 
PVC_exch_vec_shr_distr_61                                           0 			# 
PVC_exch_vec_shr_distr_62                                           0 			# 
PVC_exch_vec_shr_distr_63                                           0 			# 
PVC_exch_vec_shr_distr_64                                           0 			# 
PVC_dowm_inv_shr_distr_0                                           0 			# 
PVC_dowm_inv_shr_distr_1                                           0 			# 
PVC_dowm_inv_shr_distr_2                                           0 			# 
PVC_dowm_inv_shr_distr_3                                           0 			# 
PVC_dowm_inv_shr_distr_4                                           0 			# 
PVC_dowm_inv_shr_distr_5                                           0 			# 
PVC_dowm_inv_shr_distr_6                                           0 			# 
PVC_dowm_inv_shr_distr_7                                           0 			# 
PVC_dowm_inv_shr_distr_8                                           0 			# 
PVC_dowm_inv_shr_distr_9                                           0 			# 
PVC_dowm_inv_shr_distr_10                                           0 			# 
PVC_dowm_inv_shr_distr_11                                           0 			# 
PVC_dowm_inv_shr_distr_12                                           0 			# 
PVC_dowm_inv_shr_distr_13                                           0 			# 
PVC_dowm_inv_shr_distr_14                                           0 			# 
PVC_dowm_inv_shr_distr_15                                           0 			# 
PVC_dowm_inv_shr_distr_16                                           0 			# 
PVC_dowm_inv_shr_distr_17                                           0 			# 
PVC_dowm_inv_shr_distr_18                                           0 			# 
PVC_dowm_inv_shr_distr_19                                           0 			# 
PVC_dowm_inv_shr_distr_20                                           0 			# 
PVC_dowm_inv_shr_distr_21                                           0 			# 
PVC_dowm_inv_shr_distr_22                                           0 			# 
PVC_dowm_inv_shr_distr_23                                           0 			# 
PVC_dowm_inv_shr_distr_24                                           0 			# 
PVC_dowm_inv_shr_distr_25                                           0 			# 
PVC_dowm_inv_shr_distr_26                                           0 			# 
PVC_dowm_inv_shr_distr_27                                           0 			# 
PVC_dowm_inv_shr_distr_28                                           0 			# 
PVC_dowm_inv_shr_distr_29                                           0 			# 
PVC_dowm_inv_shr_distr_30                                           0 			# 
PVC_dowm_inv_shr_distr_31                                           0 			# 
PVC_dowm_inv_shr_distr_32                                           0 			# 
PVC_dowm_inv_shr_distr_33                                           0 			# 
PVC_dowm_inv_shr_distr_34                                           0 			# 
PVC_dowm_inv_shr_distr_35                                           0 			# 
PVC_dowm_inv_shr_distr_36                                           0 			# 
PVC_dowm_inv_shr_distr_37                                           0 			# 
PVC_dowm_inv_shr_distr_38                                           0 			# 
PVC_dowm_inv_shr_distr_39                                           0 			# 
PVC_dowm_inv_shr_distr_40                                           0 			# 
PVC_dowm_inv_shr_distr_41                                           0 			# 
PVC_dowm_inv_shr_distr_42                                           0 			# 
PVC_dowm_inv_shr_distr_43                                           0 			# 
PVC_dowm_inv_shr_distr_44                                           0 			# 
PVC_dowm_inv_shr_distr_45                                           0 			# 
PVC_dowm_inv_shr_distr_46                                           0 			# 
PVC_dowm_inv_shr_distr_47                                           0 			# 
PVC_dowm_inv_shr_distr_48                                           0 			# 
PVC_dowm_inv_shr_distr_49                                           0 			# 
PVC_dowm_inv_shr_distr_50                                           0 			# 
PVC_dowm_inv_shr_distr_51                                           0 			# 
PVC_dowm_inv_shr_distr_52                                           0 			# 
PVC_dowm_inv_shr_distr_53                                           0 			# 
PVC_dowm_inv_shr_distr_54                                           0 			# 
PVC_dowm_inv_shr_distr_55                                           0 			# 
PVC_dowm_inv_shr_distr_56                                           0 			# 
PVC_dowm_inv_shr_distr_57                                           0 			# 
PVC_dowm_inv_shr_distr_58                                           0 			# 
PVC_dowm_inv_shr_distr_59                                           0 			# 
PVC_dowm_inv_shr_distr_60                                           0 			# 
PVC_dowm_inv_shr_distr_61                                           0 			# 
PVC_dowm_inv_shr_distr_62                                           0 			# 
PVC_dowm_inv_shr_distr_63                                           0 			# 
PVC_dowm_inv_shr_distr_64                                           0 			# 
PVC_up_add_shr_distr_0                                             0 			# 
PVC_up_add_shr_distr_1                                             0 			# 
PVC_up_add_shr_distr_2                                             0 			# 
PVC_up_add_shr_distr_3                                             0 			# 
PVC_up_add_shr_distr_4                                             0 			# 
PVC_up_add_shr_distr_5                                             0 			# 
PVC_up_add_shr_distr_6                                             0 			# 
PVC_up_add_shr_distr_7                                             0 			# 
PVC_up_add_shr_distr_8                                             0 			# 
PVC_up_add_shr_distr_9                                             0 			# 
PVC_up_add_shr_distr_10                                             0 			# 
PVC_up_add_shr_distr_11                                             0 			# 
PVC_up_add_shr_distr_12                                             0 			# 
PVC_up_add_shr_distr_13                                             0 			# 
PVC_up_add_shr_distr_14                                             0 			# 
PVC_up_add_shr_distr_15                                             0 			# 
PVC_up_add_shr_distr_16                                             0 			# 
PVC_up_add_shr_distr_17                                             0 			# 
PVC_up_add_shr_distr_18                                             0 			# 
PVC_up_add_shr_distr_19                                             0 			# 
PVC_up_add_shr_distr_20                                             0 			# 
PVC_up_add_shr_distr_21                                             0 			# 
PVC_up_add_shr_distr_22                                             0 			# 
PVC_up_add_shr_distr_23                                             0 			# 
PVC_up_add_shr_distr_24                                             0 			# 
PVC_up_add_shr_distr_25                                             0 			# 
PVC_up_add_shr_distr_26                                             0 			# 
PVC_up_add_shr_distr_27                                             0 			# 
PVC_up_add_shr_distr_28                                             0 			# 
PVC_up_add_shr_distr_29                                             0 			# 
PVC_up_add_shr_distr_30                                             0 			# 
PVC_up_add_shr_distr_31                                             0 			# 
PVC_up_add_shr_distr_32                                             0 			# 
PVC_up_add_shr_distr_33                                             0 			# 
PVC_up_add_shr_distr_34                                             0 			# 
PVC_up_add_shr_distr_35                                             0 			# 
PVC_up_add_shr_distr_36                                             0 			# 
PVC_up_add_shr_distr_37                                             0 			# 
PVC_up_add_shr_distr_38                                             0 			# 
PVC_up_add_shr_distr_39                                             0 			# 
PVC_up_add_shr_distr_40                                             0 			# 
PVC_up_add_shr_distr_41                                             0 			# 
PVC_up_add_shr_distr_42                                             0 			# 
PVC_up_add_shr_distr_43                                             0 			# 
PVC_up_add_shr_distr_44                                             0 			# 
PVC_up_add_shr_distr_45                                             0 			# 
PVC_up_add_shr_distr_46                                             0 			# 
PVC_up_add_shr_distr_47                                             0 			# 
PVC_up_add_shr_distr_48                                             0 			# 
PVC_up_add_shr_distr_49                                             0 			# 
PVC_up_add_shr_distr_50                                             0 			# 
PVC_up_add_shr_distr_51                                             0 			# 
PVC_up_add_shr_distr_52                                             0 			# 
PVC_up_add_shr_distr_53                                             0 			# 
PVC_up_add_shr_distr_54                                             0 			# 
PVC_up_add_shr_distr_55                                             0 			# 
PVC_up_add_shr_distr_56                                             0 			# 
PVC_up_add_shr_distr_57                                             0 			# 
PVC_up_add_shr_distr_58                                             0 			# 
PVC_up_add_shr_distr_59                                             0 			# 
PVC_up_add_shr_distr_60                                             0 			# 
PVC_up_add_shr_distr_61                                             0 			# 
PVC_up_add_shr_distr_62                                             0 			# 
PVC_up_add_shr_distr_63                                             0 			# 
PVC_up_add_shr_distr_64                                             0 			# 
PVC_inform_all_shr_num                                              0 			# PVC_inform_all_shr_num
PVC_rfs_all_shr_num                                                 0 			# PVC_rfs_all_shr_num
PVC_read_all_shr_num                                                0 			# PVC_read_all_shr_num
PVC_write_all_shr_num                                               0 			# PVC_write_all_shr_num
PVC_recall_all_shr_num                                              0 			# PVC_recall_all_shr_num
pvc_nv_conflict_num                                                 0 			# pvc_nv_conflict_num
total_req_event_count           214 			# total num of request event inital created
StoreConditionFailNum             0 			# Total store conditional failed num
lock_network_access               0 			# 
totalUpgrades                    72 			# total number of upgrades seen
total_miss_event_count         2778 			# total num of miss event intial created
totalNetUpgrades                 71 			# total number of upgrades seen
totalUpgradesUsable               0 			# total number of upgrades not usable
totalUpgradesBeneficial            0 			# total number of upgrades not usable
totalUpgradesUse2                 0 			# total number of upgrades usable without confirmation
totalSyncdata                     0 			# total number of data packets due to sync
totalSyncmeta                     0 			# total number of meta packets due to sync
totalNetWrites                    0 			# total number of Writes seen
totalWritesUsable                 0 			# total number of Writes not usable
totalWritesBeneficial             0 			# total number of Writes not usable
totalWritesUse2                   0 			# total number of Writes usable without confirmation
totalNoExclusive                  0 			# total number of Writes unusable because of exclusive somewhere else
totalFrontWrite                   0 			# total number of Writes unusavle because of front write
totalL2WriteReqHits               0 			# total num of write events
totalL2WriteReqNoSharer            0 			# total num of write req with no sharers
totalL2WriteReqDirty              0 			# total  num of write req with just one sharer
delayL2WriteReqDirty              0 			# Extra delay to complete write req with just one sharer, in case the earlier write would had been write through
totalL2WriteReqDirtyWT            0 			# total times write req with just one sharer, in case the earlier write would had been write through
totalL2WriteReqShared             0 			# total num of write req with multiple sharers
delayL2WriteReqShared             0 			# Extra delay to complete write req with multiple sharers, in case earlier reads would had been read through
totalL2WriteReqSharedWT            0 			# total times write req with multiple sharers, in case earlier reads would had been read through
totalL2ReadReqHits                0 			# total num of Read events
totalL2ReadReqNoSharer            0 			# total num of Read req with no sharers
totalL2ReadReqDirty               0 			# total  num of Read req with just one sharer
delayL2ReadReqDirty               0 			# Extra delay to complete Read req with just one sharer, in case the earlier write would had been write through
totalL2ReadReqDirtyWT             0 			# total times Read req with just one sharer, in case the earlier write would had been write through
totalL2ReadReqShared              0 			# total num of read req with multiple sharers
totalL1LinePrefUse                0 			# total L1 line prefetches useful
totalL1LinePrefNoUse              0 			# total L1 line prefetches not useful
totalL1LineReadUse                0 			# total L1 line read misses useful
totalL1LineReadNoUse              0 			# total L1 line read misses not useful
totalL1LineWriteUse               0 			# total L1 line write misses useful
totalL1LineWriteNoUse             0 			# total L1 line write misses not useful
totalL1LineExlUsed               92 			# total L1 line in exclusive mode useful
totalL1LineExlInv                 0 			# total L1 line in exclusive mode invalidated without use
totalL1LineExlDrop                0 			# total L1 line in exclusive mode droped without use
totalL2ReqPrimMiss                0 			# Total number of directory requests involve in primary miss
totalL2ReqSecMiss                 0 			# Total number of directory requests involve in secondary miss
totalL2ReqHit                     0 			# Total number of directory requests involve in clean hit
totalL2ReqInTrans                 0 			# Total number of directory requests find line in transition
totalL2OwnReqInTrans              0 			# Total number of directory ownership requests find line in transition
totalL2ReqInInv                   0 			# Total number of directory requests have to invalidate
delayL2ReqPrimMiss                0 			# delay of Total number of directory requests involve in primary miss
delayL2ReqSecMiss                 0 			# delay of Total number of directory requests involve in secondary miss
delayL2ReqHit                     0 			# delay of Total number of directory requests involve in clean hit
delayL2ReqInTrans                 0 			# delay of Total number of directory requests find line in transition
delayL2OwnReqInTrans              0 			# delay of Total number of directory ownership requests find line in transition
delayL2ReqInInv                   0 			# delay of Total number of directory requests have to invalidate
totalWriteReq                   221 			# Total number of write request to L2
totalWriteReqInv                199 			# Total number of write requests with invalidations to L2
totalWriteDelay               74986 			# Time spent in write requests to L2
totalWriteInvDelay         -5496576 			# Time spent in invalidation for write requests to L2
totalUpgradeReq                  65 			# Total number of write request to L2
totalUpgradeReqInv                0 			# Total number of write requests with invalidations to L2
totalUpgradeDelay             12048 			# Time spent in write requests to L2
totalUpgradeInvDelay              0 			# Time spent in invalidation for write requests to L2
totalUpgradeDependDelay         8456 			# Time spent in depend delay for update requests to L2
countNonAllocReadEarly            0 			# Number of times a read miss request from L1 has been serviced early without allocation
WM_Miss                           0 			# 
WM_Clean                          0 			# 
WM_S                              0 			# 
WM_EM                             0 			# 
WM_ShardUseConf                   0 			# 
Sync_L2_miss                      0 			# 
SyncInstCacheAccess               0 			# 
TestCacheAccess                   0 			# 
TestSecCacheAccess                0 			# 
SetCacheAccess                    0 			# 
SyncLoadReadMiss                  0 			# 
SyncLoadLReadMiss                 0 			# 
SyncLoadHit                       0 			# 
SyncLoadLHit                      0 			# 
SyncStoreCHit                     0 			# 
SyncStoreCWriteMiss               0 			# 
SyncStoreCWriteUpgrade            0 			# 
SyncStoreHit                      0 			# 
SyncStoreWriteMiss                0 			# 
SyncStoreWriteUpgrade             0 			# 
BarStoreWriteMiss                 0 			# 
BarStoreWriteUpgrade              0 			# 
test_hit_ratio         <error: divide by zero: > # 
test_sec_hit_ratio     <error: divide by zero: > # 
set_hit_ratio          <error: divide by zero: > # 
lock_fifo_full                    0 			# total number of lock fifo overflow
lock_fifo_wrong                   0 			# total number of lock fifo overflow
lock_fifo_writeback               0 			# total number of lock fifo overflow
lock_fifo_benefit                 0 			# total number of lock fifo benefit
lock_cache_hit                    0 			# total number of lock fifo benefit
lock_cache_miss                   0 			# total number of lock fifo benefit
L1_mshr_full                      0 			# total number of L1 mshr overflow
Stall_L1_mshr                     0 			# total stall cycles for L1 mshr overflow
L2_mshr_full                      0 			# total number of L2 mshr overflow
Stall_L2_mshr                     0 			# total stall cycles for L2 mshr overflow
L2_mshr_full_prefetch             0 			# total number of L2 mshr overflow when prefetch
L1_fifo_full                      0 			# total number of L1 fifo overflow
Stall_L1_fifo                     0 			# total stall cycles for L1 fifo overflow
Dir_fifo_full                    28 			# total number of dir fifo overflow
Stall_dir_fifo                  400 			# total stall cycles for dir fifo overflow
Input_queue_full               1706 			# total number of input queue overflow
Output_queue_full                 0 			# total number of output queue overflow
Stall_input_queue             31904 			# total stall cycles due to input queue overflow
Stall_output_queue                0 			# total stall cycles due to output queue overflow
total_load_link_shared            0 			# total load link shared
total_load_link_exclusive            0 			# total load link shared
total_normal_miss_handle_time       569270 			# total time of handling the missing
total_sync_miss_handle_time            0 			# total time of handling the missing
total_L2_miss_handle_time       219310 			# total time of handling the missing
total_Wrong_L2_miss_handle_time            0 			# total time of handling the missing
total_L2_misses                 802 			# total time of handling the missing
total_mem_lat                183275 			# total time of handling the missing
total_mem_access                902 			# total time of handling the missing
total_miss_handle_time       569270 			# total time of handling the missing
total_nack_count                  0 			# total num of nack messages sending
total_prefetch_nack_count            0 			# total num of nack messages sending
total_normal_nack_count            0 			# total num of nack messages sending
total_write_nack_count            0 			# total num of nack messages sending
total_sync_nack_count             0 			# total num of nack messages sending
total_sc_fail_count               0 			# total num of store conditional fail
total_flip_count               7205 			# total num of flipped messages
total_L1_flip_count               0 			# total num of flipped messages
total_data_reply_benefit           92 			# total num of data reply benefit
average_normal_miss_handle_time     185.7931 # cycles per every miss and invalidation
average_L2_miss_handle_time      71.5764 # cycles per every miss and invalidation
average_sync_miss_handle_time <error: divide by zero: > # cycles per every miss and invalidation
average_miss_handle_time     185.7931 # cycles per every miss and invalidation
total_mesh_network_access        21940 			# total mesh_network access
total_mesh_network_delay       951689 			# total mesh_network delay
average_mesh_network_time      43.3769 # cycles per mesh_network access
total_normal_mesh_network_access        21940 			# total mesh_network access
total_normal_mesh_network_delay       951689 			# total mesh_network delay
average_normal_mesh_network_time <error: variable is undefined: total_noraml_mesh_network_delay> # cycles per mesh_network access
total_sync_mesh_network_access            0 			# total mesh_network access
total_sync_mesh_network_delay            0 			# total mesh_network delay
average_sync_mesh_network_time <error: divide by zero: > # cycles per mesh_network access
total_opt_network_access            0 			# total opt_network access
total_opt_network_delay            0 			# total opt_network delay
average_opt_network_time <error: divide by zero: > # cycles per opt_network access
total_normal_opt_network_access            0 			# total opt_network access
total_normal_opt_network_delay            0 			# total opt_network delay
average_normal_opt_network_time <error: divide by zero: > # cycles per opt_network access
total_sync_opt_network_access            0 			# total opt_network access
[...]
bpred_comb_60.retstack_pushes           39 			# total number of address pushed onto ret-addr stack
bpred_comb_60.retstack_pops           36 			# total number of address popped off of ret-addr stack
bpred_comb_60.used_ras.PP           34 			# total number of RAS predictions used
bpred_comb_60.ras_hits.PP            9 			# total number of RAS hits
bpred_comb_60.ras_rate.PP    0.2647 # RAS prediction rate (i.e., RAS hits/used RAS)
bpred_comb_61.lookups           272 			# total number of bpred lookups
bpred_comb_61.updates           194 # total number of updates
bpred_comb_61.addr_hits           84 			# total number of address-predicted hits
bpred_comb_61.dir_hits          132 			# total number of direction-predicted hits (includes addr-hits)
bpred_comb_61.used_bimod           64 			# total number of bimodal predictions used
bpred_comb_61.used_2lev           58 			# total number of 2-level predictions used
bpred_comb_61.misses             62 			# total number of misses
bpred_comb_61.jr_hits            18 			# total number of address-predicted hits for JR's
bpred_comb_61.jr_seen            65 			# total number of JR's seen
bpred_comb_61.jr_non_ras_hits.PP            9 			# total number of address-predicted hits for non-RAS JR's
bpred_comb_61.jr_non_ras_seen.PP           31 			# total number of non-RAS JR's seen
bpred_comb_61.bpred_addr_rate    0.4330 # branch address-prediction rate (i.e., addr-hits/updates)
bpred_comb_61.bpred_dir_rate    0.6804 # branch direction-prediction rate (i.e., all-hits/updates)
bpred_comb_61.bpred_jr_rate    0.2769 # JR address-prediction rate (i.e., JR addr-hits/JRs seen)
bpred_comb_61.bpred_jr_non_ras_rate.PP    0.2903 # non-RAS JR addr-pred rate (ie, non-RAS JR hits/JRs seen)
bpred_comb_61.retstack_pushes           39 			# total number of address pushed onto ret-addr stack
bpred_comb_61.retstack_pops           36 			# total number of address popped off of ret-addr stack
bpred_comb_61.used_ras.PP           34 			# total number of RAS predictions used
bpred_comb_61.ras_hits.PP            9 			# total number of RAS hits
bpred_comb_61.ras_rate.PP    0.2647 # RAS prediction rate (i.e., RAS hits/used RAS)
bpred_comb_62.lookups           264 			# total number of bpred lookups
bpred_comb_62.updates           194 # total number of updates
bpred_comb_62.addr_hits           87 			# total number of address-predicted hits
bpred_comb_62.dir_hits          135 			# total number of direction-predicted hits (includes addr-hits)
bpred_comb_62.used_bimod           68 			# total number of bimodal predictions used
bpred_comb_62.used_2lev           54 			# total number of 2-level predictions used
bpred_comb_62.misses             59 			# total number of misses
bpred_comb_62.jr_hits            18 			# total number of address-predicted hits for JR's
bpred_comb_62.jr_seen            65 			# total number of JR's seen
bpred_comb_62.jr_non_ras_hits.PP            9 			# total number of address-predicted hits for non-RAS JR's
bpred_comb_62.jr_non_ras_seen.PP           31 			# total number of non-RAS JR's seen
bpred_comb_62.bpred_addr_rate    0.4485 # branch address-prediction rate (i.e., addr-hits/updates)
bpred_comb_62.bpred_dir_rate    0.6959 # branch direction-prediction rate (i.e., all-hits/updates)
bpred_comb_62.bpred_jr_rate    0.2769 # JR address-prediction rate (i.e., JR addr-hits/JRs seen)
bpred_comb_62.bpred_jr_non_ras_rate.PP    0.2903 # non-RAS JR addr-pred rate (ie, non-RAS JR hits/JRs seen)
bpred_comb_62.retstack_pushes           40 			# total number of address pushed onto ret-addr stack
bpred_comb_62.retstack_pops           36 			# total number of address popped off of ret-addr stack
bpred_comb_62.used_ras.PP           34 			# total number of RAS predictions used
bpred_comb_62.ras_hits.PP            9 			# total number of RAS hits
bpred_comb_62.ras_rate.PP    0.2647 # RAS prediction rate (i.e., RAS hits/used RAS)
bpred_comb_63.lookups           258 			# total number of bpred lookups
bpred_comb_63.updates           179 # total number of updates
bpred_comb_63.addr_hits           70 			# total number of address-predicted hits
bpred_comb_63.dir_hits          117 			# total number of direction-predicted hits (includes addr-hits)
bpred_comb_63.used_bimod           50 			# total number of bimodal predictions used
bpred_comb_63.used_2lev           55 			# total number of 2-level predictions used
bpred_comb_63.misses             62 			# total number of misses
bpred_comb_63.jr_hits            18 			# total number of address-predicted hits for JR's
bpred_comb_63.jr_seen            65 			# total number of JR's seen
bpred_comb_63.jr_non_ras_hits.PP            9 			# total number of address-predicted hits for non-RAS JR's
bpred_comb_63.jr_non_ras_seen.PP           31 			# total number of non-RAS JR's seen
bpred_comb_63.bpred_addr_rate    0.3911 # branch address-prediction rate (i.e., addr-hits/updates)
bpred_comb_63.bpred_dir_rate    0.6536 # branch direction-prediction rate (i.e., all-hits/updates)
bpred_comb_63.bpred_jr_rate    0.2769 # JR address-prediction rate (i.e., JR addr-hits/JRs seen)
bpred_comb_63.bpred_jr_non_ras_rate.PP    0.2903 # non-RAS JR addr-pred rate (ie, non-RAS JR hits/JRs seen)
bpred_comb_63.retstack_pushes           39 			# total number of address pushed onto ret-addr stack
bpred_comb_63.retstack_pops           37 			# total number of address popped off of ret-addr stack
bpred_comb_63.used_ras.PP           34 			# total number of RAS predictions used
bpred_comb_63.ras_hits.PP            9 			# total number of RAS hits
bpred_comb_63.ras_rate.PP    0.2647 # RAS prediction rate (i.e., RAS hits/used RAS)
**************************************************
total finished:       6.95334e-310
average Delay:        45.2057
total mem power:      12.8467
total crossbar power: 61.8062
total arbiter power:  0.0802476
total link power:     53.5961
total power:          128.329
**************************************************
  0 arbiter power: 30.5304
  0 buffer power: 1050.51
  0 crossbar power: 4059.51
  0 link power: 4640.53
0 total router power: 9781.09
  1 arbiter power: 30.5367
  1 buffer power: 1654.72
  1 crossbar power: 7251.63
  1 link power: 7224.22
1 total router power: 16161.1
  2 arbiter power: 30.5271
  2 buffer power: 775.16
  2 crossbar power: 2357.35
  2 link power: 3259.82
2 total router power: 6422.85
  3 arbiter power: 30.5264
  3 buffer power: 714.569
  3 crossbar power: 2031.47
  3 link power: 2996.07
3 total router power: 5772.64
  4 arbiter power: 30.5282
  4 buffer power: 863.196
  4 crossbar power: 2929.4
  4 link power: 3724.17
4 total router power: 7547.29
  5 arbiter power: 30.5338
  5 buffer power: 1389.56
  5 crossbar power: 5794
  5 link power: 6045.8
5 total router power: 13259.9
  6 arbiter power: 30.5482
  6 buffer power: 2695.43
  6 crossbar power: 13084.2
  6 link power: 11956.9
6 total router power: 27767.1
  7 arbiter power: 30.5274
  7 buffer power: 795.071
  7 crossbar power: 2517.34
  7 link power: 3390.04
7 total router power: 6732.98
  8 arbiter power: 30.5263
  8 buffer power: 701.297
  8 crossbar power: 1951.5
  8 link power: 2931.22
8 total router power: 5614.54
  9 arbiter power: 30.5263
  9 buffer power: 701.297
  9 crossbar power: 1951.5
  9 link power: 2931.22
9 total router power: 5614.54
  10 arbiter power: 30.7126
  10 buffer power: 14328.4
  10 crossbar power: 66810.4
  10 link power: 55476.8
10 total router power: 136646
  11 arbiter power: 30.9022
  11 buffer power: 26738.3
  11 crossbar power: 139775
  11 link power: 114384
11 total router power: 280928
  12 arbiter power: 30.8749
  12 buffer power: 23281.3
  12 crossbar power: 132324
  12 link power: 108573
12 total router power: 264209
  13 arbiter power: 30.8687
  13 buffer power: 23179.8
  13 crossbar power: 132264
  13 link power: 108528
13 total router power: 264003
  14 arbiter power: 30.8794
  14 buffer power: 24799.8
  14 crossbar power: 138289
  14 link power: 113369
14 total router power: 276489
  15 arbiter power: 30.8859
  15 buffer power: 27127.2
  15 crossbar power: 142455
  15 link power: 116623
15 total router power: 286237
  16 arbiter power: 30.7432
  16 buffer power: 15879.1
  16 crossbar power: 81280
  16 link power: 67160.4
16 total router power: 164350
  17 arbiter power: 30.607
  17 buffer power: 7199.67
  17 crossbar power: 34681.8
  17 link power: 29466.8
17 total router power: 71378.9
  18 arbiter power: 30.5263
  18 buffer power: 701.297
  18 crossbar power: 1951.5
  18 link power: 2931.22
18 total router power: 5614.54
  19 arbiter power: 30.5263
  19 buffer power: 701.297
  19 crossbar power: 1951.5
  19 link power: 2931.22
19 total router power: 5614.54
  20 arbiter power: 30.7113
  20 buffer power: 7459.25
  20 crossbar power: 37243.9
  20 link power: 31538
20 total router power: 76271.9
  21 arbiter power: 30.7509
  21 buffer power: 8070.44
  21 crossbar power: 41005.2
  21 link power: 34564.8
21 total router power: 83671.2
  22 arbiter power: 30.6383
  22 buffer power: 6366.25
  22 crossbar power: 30705.4
  22 link power: 26225
22 total router power: 63327.3
  23 arbiter power: 30.6364
  23 buffer power: 6385.03
  23 crossbar power: 30995.2
  23 link power: 26465.7
23 total router power: 63876.5
  24 arbiter power: 30.6656
  24 buffer power: 6733.25
  24 crossbar power: 33332.3
  24 link power: 28358.3
24 total router power: 68454.6
  25 arbiter power: 30.7645
  25 buffer power: 8195.4
  25 crossbar power: 41755.9
  25 link power: 35176.8
25 total router power: 85158.9
  26 arbiter power: 30.6754
  26 buffer power: 7555.2
  26 crossbar power: 37939.8
  26 link power: 32087.5
26 total router power: 77613.2
  27 arbiter power: 30.6025
  27 buffer power: 5688.59
  27 crossbar power: 27680.2
  27 link power: 23793.2
27 total router power: 57192.6
  28 arbiter power: 30.5263
  28 buffer power: 701.297
  28 crossbar power: 1951.5
  28 link power: 2931.22
28 total router power: 5614.54
  29 arbiter power: 30.5263
  29 buffer power: 701.297
  29 crossbar power: 1951.5
  29 link power: 2931.22
29 total router power: 5614.54
  30 arbiter power: 30.691
  30 buffer power: 7003.87
  30 crossbar power: 34642.1
  30 link power: 29421.8
30 total router power: 71098.5
  31 arbiter power: 30.7412
  31 buffer power: 7923.61
  31 crossbar power: 39974.3
  31 link power: 33726.8
31 total router power: 81655.5
  32 arbiter power: 30.6472
  32 buffer power: 6547.62
  32 crossbar power: 31661.8
  32 link power: 27000.3
32 total router power: 65240.4
  33 arbiter power: 30.6416
  33 buffer power: 6507.14
  33 crossbar power: 31444.4
  33 link power: 26825.9
33 total router power: 64808.1
  34 arbiter power: 30.6683
  34 buffer power: 6964.18
  34 crossbar power: 34151.2
  34 link power: 29014.2
34 total router power: 70160.2
  35 arbiter power: 30.7599
  35 buffer power: 8314.12
  35 crossbar power: 42272.7
  35 link power: 35602.2
35 total router power: 86219.8
  36 arbiter power: 30.6777
  36 buffer power: 7966.93
  36 crossbar power: 35155.6
  36 link power: 29810.4
36 total router power: 72963.6
  37 arbiter power: 30.5992
  37 buffer power: 5595.13
  37 crossbar power: 26256
  37 link power: 22636.7
37 total router power: 54518.4
  38 arbiter power: 30.5263
  38 buffer power: 701.297
  38 crossbar power: 1951.5
  38 link power: 2931.22
38 total router power: 5614.54
  39 arbiter power: 30.5263
  39 buffer power: 701.297
  39 crossbar power: 1951.5
  39 link power: 2931.22
39 total router power: 5614.54
  40 arbiter power: 30.6674
  40 buffer power: 6263.03
  40 crossbar power: 30383.8
  40 link power: 25975.2
40 total router power: 62652.7
  41 arbiter power: 30.7255
  41 buffer power: 7272.54
  41 crossbar power: 35987.4
  41 link power: 30487.3
41 total router power: 73777.9
  42 arbiter power: 30.645
  42 buffer power: 6147.08
  42 crossbar power: 29806.4
  42 link power: 25498.4
42 total router power: 61482.5
  43 arbiter power: 30.6355
  43 buffer power: 6053.46
  43 crossbar power: 28777
  43 link power: 24655.1
43 total router power: 59516.2
  44 arbiter power: 30.656
  44 buffer power: 6240.53
  44 crossbar power: 29736.9
  44 link power: 25438.9
44 total router power: 61447
  45 arbiter power: 30.7409
  45 buffer power: 7393.74
  45 crossbar power: 36891.2
  45 link power: 31233
45 total router power: 75548.6
  46 arbiter power: 30.6721
  46 buffer power: 6452.22
  46 crossbar power: 31754.4
  46 link power: 27070.9
46 total router power: 65308.2
  47 arbiter power: 30.5935
  47 buffer power: 5223.45
  47 crossbar power: 24422.8
  47 link power: 21151.8
47 total router power: 50828.7
  48 arbiter power: 30.5263
  48 buffer power: 701.297
  48 crossbar power: 1951.5
  48 link power: 2931.22
48 total router power: 5614.54
  49 arbiter power: 30.5263
  49 buffer power: 701.297
  49 crossbar power: 1951.5
  49 link power: 2931.22
49 total router power: 5614.54
  50 arbiter power: 30.6499
  50 buffer power: 5840.59
  50 crossbar power: 27866
  50 link power: 23938
50 total router power: 57675.2
  51 arbiter power: 30.7241
  51 buffer power: 8222.16
  51 crossbar power: 38422.6
  51 link power: 32449.5
51 total router power: 79125
  52 arbiter power: 30.6743
  52 buffer power: 9012.54
  52 crossbar power: 40730.6
  52 link power: 34314.2
52 total router power: 84088
  53 arbiter power: 30.6645
  53 buffer power: 8571.74
  53 crossbar power: 39210.3
  53 link power: 33100.4
53 total router power: 80913.1
  54 arbiter power: 30.6758
  54 buffer power: 8652.82
  54 crossbar power: 39831.1
  54 link power: 33607.4
54 total router power: 82122
  55 arbiter power: 30.7576
  55 buffer power: 9519.62
  55 crossbar power: 44989.9
  55 link power: 37779
55 total router power: 92319.3
  56 arbiter power: 30.6943
  56 buffer power: 9146.44
  56 crossbar power: 38666.2
  56 link power: 32648.3
56 total router power: 80491.6
  57 arbiter power: 30.5901
  57 buffer power: 5021.45
  57 crossbar power: 23141
  57 link power: 20111.9
57 total router power: 48305
  58 arbiter power: 30.5263
  58 buffer power: 701.297
  58 crossbar power: 1951.5
  58 link power: 2931.22
58 total router power: 5614.54
  59 arbiter power: 30.5263
  59 buffer power: 701.297
  59 crossbar power: 1951.5
  59 link power: 2931.22
59 total router power: 5614.54
  60 arbiter power: 30.6303
  60 buffer power: 5329.41
  60 crossbar power: 25043.3
  60 link power: 21648
60 total router power: 52051.4
  61 arbiter power: 30.7248
  61 buffer power: 8666.13
  61 crossbar power: 45206.6
  61 link power: 37968.2
61 total router power: 91871.6
  62 arbiter power: 30.6983
  62 buffer power: 9943.47
  62 crossbar power: 52562.4
  62 link power: 43937
62 total router power: 106474
  63 arbiter power: 30.7008
  63 buffer power: 10987.5
  63 crossbar power: 59174.6
  63 link power: 49307.4
63 total router power: 119500
  64 arbiter power: 30.7261
  64 buffer power: 12679.2
  64 crossbar power: 69239.7
  64 link power: 57459.2
64 total router power: 139409
  65 arbiter power: 30.8057
  65 buffer power: 17167.6
  65 crossbar power: 89490.4
  65 link power: 73749.7
65 total router power: 180439
  66 arbiter power: 30.7268
  66 buffer power: 15043.7
  66 crossbar power: 75477.7
  66 link power: 62463.1
66 total router power: 153015
  67 arbiter power: 30.5848
  67 buffer power: 4653.29
  67 crossbar power: 20596.4
  67 link power: 18047.2
67 total router power: 43327.5
  68 arbiter power: 30.5263
  68 buffer power: 701.297
  68 crossbar power: 1951.5
  68 link power: 2931.22
68 total router power: 5614.54
  69 arbiter power: 30.5263
  69 buffer power: 701.297
  69 crossbar power: 1951.5
  69 link power: 2931.22
69 total router power: 5614.54
  70 arbiter power: 30.5895
  70 buffer power: 3346.76
  70 crossbar power: 13332.4
  70 link power: 12154
70 total router power: 28863.8
  71 arbiter power: 30.6724
  71 buffer power: 5369.76
  71 crossbar power: 25093
  71 link power: 21662.2
71 total router power: 52155.7
  72 arbiter power: 30.6355
  72 buffer power: 5058.92
  72 crossbar power: 23523.5
  72 link power: 20404.4
72 total router power: 49017.5
  73 arbiter power: 30.623
  73 buffer power: 4794.32
  73 crossbar power: 21685.8
  73 link power: 18916.6
73 total router power: 45427.3
  74 arbiter power: 30.6261
  74 buffer power: 4902.18
  74 crossbar power: 22115.3
  74 link power: 19260.6
74 total router power: 46308.7
  75 arbiter power: 30.6637
  75 buffer power: 5534.33
  75 crossbar power: 25829
  75 link power: 22263
75 total router power: 53657
  76 arbiter power: 30.6421
  76 buffer power: 6714.71
  76 crossbar power: 28525.2
  76 link power: 24432.7
76 total router power: 59703.3
  77 arbiter power: 30.5587
  77 buffer power: 2821.07
  77 crossbar power: 10141.5
  77 link power: 9571.08
77 total router power: 22564.2
  78 arbiter power: 30.5263
  78 buffer power: 701.297
  78 crossbar power: 1951.5
  78 link power: 2931.22
78 total router power: 5614.54
  79 arbiter power: 30.5263
  79 buffer power: 701.297
  79 crossbar power: 1951.5
  79 link power: 2931.22
79 total router power: 5614.54
  80 arbiter power: 30.5619
  80 buffer power: 2367.63
  80 crossbar power: 7243.83
  80 link power: 7217.81
80 total router power: 16859.8
  81 arbiter power: 30.6467
  81 buffer power: 6731.63
  81 crossbar power: 25910.5
  81 link power: 22285.4
81 total router power: 54958.1
  82 arbiter power: 30.6595
  82 buffer power: 6514.3
  82 crossbar power: 27872.6
  82 link power: 23892.4
82 total router power: 58310
  83 arbiter power: 30.6405
  83 buffer power: 6089.87
  83 crossbar power: 25439.6
  83 link power: 21931.7
83 total router power: 53491.8
  84 arbiter power: 30.6327
  84 buffer power: 5447.11
  84 crossbar power: 23194.4
  84 link power: 20115.3
84 total router power: 48787.5
  85 arbiter power: 30.6374
  85 buffer power: 4740.94
  85 crossbar power: 21569.6
  85 link power: 18803.5
85 total router power: 45144.7
  86 arbiter power: 30.6254
  86 buffer power: 5500.77
  86 crossbar power: 26184.6
  86 link power: 22541.6
86 total router power: 54257.6
  87 arbiter power: 30.5459
  87 buffer power: 1966.52
  87 crossbar power: 5084.82
  87 link power: 5464.83
87 total router power: 12546.7
  88 arbiter power: 30.5263
  88 buffer power: 701.297
  88 crossbar power: 1951.5
  88 link power: 2931.22
88 total router power: 5614.54
  89 arbiter power: 30.5263
  89 buffer power: 701.297
  89 crossbar power: 1951.5
  89 link power: 2931.22
89 total router power: 5614.54
  90 arbiter power: 30.5263
  90 buffer power: 701.297
  90 crossbar power: 1951.5
  90 link power: 2931.22
90 total router power: 5614.54
  91 arbiter power: 30.537
  91 buffer power: 1684.2
  91 crossbar power: 7436.78
  91 link power: 7379.05
91 total router power: 16530.6
  92 arbiter power: 30.5607
  92 buffer power: 3835.61
  92 crossbar power: 19357.8
  92 link power: 17021.8
92 total router power: 40245.8
  93 arbiter power: 30.5433
  93 buffer power: 2128.01
  93 crossbar power: 10566.3
  93 link power: 9916.64
93 total router power: 22641.5
  94 arbiter power: 30.5407
  94 buffer power: 1913.19
  94 crossbar power: 9269.57
  94 link power: 8865.2
94 total router power: 20078.5
  95 arbiter power: 30.5531
  95 buffer power: 3147.7
  95 crossbar power: 15543
  95 link power: 13933.7
95 total router power: 32655
  96 arbiter power: 30.558
  96 buffer power: 3591.22
  96 crossbar power: 18090.3
  96 link power: 16017.1
96 total router power: 37729.2
  97 arbiter power: 30.5272
  97 buffer power: 779.845
  97 crossbar power: 2418.85
  97 link power: 3303.52
97 total router power: 6532.74
  98 arbiter power: 30.5263
  98 buffer power: 701.297
  98 crossbar power: 1951.5
  98 link power: 2931.22
98 total router power: 5614.54
  99 arbiter power: 30.5263
  99 buffer power: 701.297
  99 crossbar power: 1951.5
  99 link power: 2931.22
99 total router power: 5614.54
Total Network power: 5.97798e+06
Total finished packet:		    21940
Total delay in popNet:		    991814
Average delay in popNet:		45.2057

